**
** ABAQUS Input Deck Generated by HyperMesh Version  : 8.0SR1
** Generated using HyperMesh-Abaqus Template Version : 8.0sr1
**
**   Template:  ABAQUS/STANDARD 3D
**
*NODE
         1,  -1049.0        ,  0.0            ,  -152.3         
         3,  498.5          ,  116.5          ,  277.9          
         5,  498.5          ,  -50.1          ,  277.9          
         6,  591.0          ,  600.0          ,  236.3          
        17,  584.0          ,  233.9          ,  311.0          
        21,  505.8          ,  -12.6          ,  70.2           
        22,  505.8          ,  77.4           ,  70.2           
        47,  584.0          ,  -233.9         ,  311.0          
        51,  284.8          ,  -167.23        ,  318.1          
        52,  170.35         ,  -167.23        ,  231.5          
        55,  284.8          ,  183.27         ,  318.1          
        56,  170.35         ,  195.77         ,  231.5          
        69,  -730.6608134352,  173.44019198858,  573.88939181377
        73,  -1090.8        ,  293.1          ,  342.7          
        74,  -774.0         ,  293.1          ,  336.5          
        83,  -1090.8        ,  156.0          ,  125.1          
        85,  -1090.8        ,  156.0          ,  125.1          
        94,  -1020.8        ,  548.1          ,  379.0          
        95,  -1100.0        ,  590.0          ,  379.0          
        96,  -1042.8        ,  556.0          ,  128.0          
** ... 166 like lines cut
*ELEMENT,TYPE=B31,ELSET=ct_1500x0065
     20290,        73,       104
*ELEMENT,TYPE=B31,ELSET=ct_0500x0035
     19766,     19526,       162
     19767,     19525,       167
     20024,     19669,        17
     20023,     19670,        47
     20214,     18965,     19669
     20215,     18965,     19670
     20362,     19772,     19622
     20361,     19759,     19625
     20353,       105,     19980
     20354,     19980,     19625
     20355,        74,     19981
     20356,     19981,     19622
*ELEMENT,TYPE=B31,ELSET=ct_1000x0028
     19125,     18902,     18897
     19124,     18896,     18902
     20350,     19980,       101
     20349,       167,     19980
     20034,     18902,     19166
     20033,     19165,     18902
     20070,     19698,        56
     20069,        52,     19699
     19819,        17,     19526
     19818,        47,     19525
     20031,     19630,        51
     20032,        55,     19661
     20099,     19759,     19512
     20101,     19772,       162
     20098,     19759,       167
     20100,     19772,     19515
     20351,       162,     19981
     20352,     19981,        69
*ELEMENT,TYPE=B31,ELSET=ct_1000x0049
     20116,       114,       105
     20115,        74,        83
     20357,       176,     19982
     20358,     19982,       123
     20021,     19670,         5
     20022,         3,     19669
     20334,       129,     19515
     20333,       144,     19512
*ELEMENT,TYPE=B31,ELSET=ct_1000x0065
     19610,        47,     18970
     19611,        17,     18971
     20120,       502,     19526
     20119,     19525,       521
     20248,     19422,       123
     20247,       176,     19422
        70,       104,       114
        60,        83,        73
     19988,        83,       114
*ELEMENT,TYPE=B31,ELSET=ct_1000x0095
     20313,     19933,     19936
     20312,     19924,     19936
     20324,     19976,     19923
     20327,     19973,     19924
     20309,     19935,     19923
     20308,     19935,     19932
     19224,     19148,     18941
     19225,     18941,     18939
     19226,     18939,     19148
     19227,     18939,     19898
     19228,     19898,     18941
     19229,     19898,     19148
     19230,     18938,     19897
     19231,     19897,     19149
     19232,     19149,     18940
     19233,     18940,     19897
     19234,     18938,     19149
     19236,     18940,     18938
     19765,     19526,     19525
       138,       101,       105
** ... 57 like lines cut
*ELEMENT,TYPE=B31,ELSET=ct_0625x0035
     20038,     19166,     19625
     20037,     19166,     18897
     20036,     19165,     19622
     20035,     19165,     18896
     19886,     18902,     19302
     20132,     19888,     19148
     20133,     19889,     19149
     19855,     19512,     18897
     19854,     19515,     18896
     20231,       144,     19167
     20232,     19167,     19512
     20233,       129,     19168
     20234,     19168,     19515
     19885,     18902,     19305
     20329,       209,     19977
     20366,     19983,     19977
     20363,     19977,     19982
     20332,        83,     19977
*ELEMENT,TYPE=B31,ELSET=ct_0625x0049
     19389,     19928,     19932
     20298,     19931,     19933
     20195,       184,       144
     20196,       192,       129
     20342,     19979,        21
     20343,     19978,        22
     20053,        47,     19203
     20052,        17,     19260
     20102,     19772,     19698
     20095,     19759,     19699
     20103,     19772,     19661
     20096,     19630,     19759
     20054,     19630,     19203
     20055,     19661,     19260
     20367,     19979,     19547
     20368,     19978,     19548
*ELEMENT,TYPE=B31,ELSET=ct_1000sq0045
     20299,       126,     19931
     20300,        96,     19928
     20011,        22,     19548
     20012,        21,     19547
*ELEMENT,TYPE=B31,ELSET=ct_1000sq0049
     20039,     19165,     19166
     19379,     19938,       419
       565,        74,       420
       567,       105,       419
     20307,     19938,       104
     20306,     19937,        73
     19382,     19937,       420
     19368,        83,       209
     19367,       114,       244
     19638,       209,     19302
     19639,       244,     19305
     20341,     18965,       144
     20340,       129,     18965
     20338,     19979,     19978
     20336,     19547,     19548
     20339,     19978,     19004
     20335,     19512,     19547
     19804,     19548,     19515
     20245,     19899,     19203
     20246,     19896,     19238
** ... 8 like lines cut
*ELEMENT,TYPE=B31,ELSET=ct_1000sq0065
     20315,     19937,     19939
     20314,     19938,     19940
*ELEMENT,TYPE=B31,ELSET=ct_0625x0028
     20104,     19772,     19526
     20097,     19759,     19525
     19915,     18902,     19512
     19914,     19515,     18902
*ELEMENT,TYPE=B31,ELSET=ct_1250x0049
     19635,     18896,     19302
     19141,       105,     18897
     19634,     18897,     19305
     19934,     19622,        74
     19935,     19625,       105
     19140,        74,     18896
     20319,     19897,     18965
     20318,     19898,     18965
     20320,     19923,       176
     20321,       104,     19924
*ELEMENT,TYPE=B31,ELSET=testrig
     19086,       127,     18889
     19073,     18873,     18874
     19074,     18883,     18877
     19075,     18872,     19001
     19076,        98,         1
     19087,       127,     18888
     19091,       128,     18886
     19092,     18886,         1
*ELEMENT,TYPE=B31,ELSET=rear_uca
     19559,       189,     19238
     19189,       189,       129
     19200,       145,       181
     19201,       181,       144
*ELEMENT,TYPE=B31,ELSET=frt_uca
        30,       176,       171
        31,       175,       171
       214,       177,       122
       215,       177,       123
*ELEMENT,TYPE=B31,ELSET=frt_lca
       226,     19930,       116
       227,     19930,     18987
       228,     19153,        85
       229,     19153,     18989
*ELEMENT,TYPE=B31,ELSET=rear_lca
     19195,     18920,     19004
     19198,       152,     18921
     20259,     18920,     19900
     20254,       153,     18921
*ELEMENT,TYPE=B31,ELSET=steeringlink
     19370,       172,        73
     19369,       178,       104
*RELEASE
     20120,S2,M1-M2
     20119,S2,M1-M2
*RELEASE
     20132,S2,M1-M2
     20133,S2,M1-M2
*RELEASE
     19389,S2,M1-M2
*RELEASE
     19370,S2,M1-M2
     19369,S2,M1-M2
*ELEMENT,TYPE=T3D2,ELSET=dampers
     20269,     19897,     19896
     20268,     19898,     19899
     20293,     19922,     19923
     20294,     19925,     19924
*ELEMENT,TYPE=C3D8,ELSET=engine_comp
       441,        51,        52,        56,        55,         5,        21,        22,
         3
**HWNAME COMP         15 PINS
**HWCOLOR COMP         15     4
*MPC
PIN,       171,        94
PIN,       172,        95
PIN,     19153,        96
PIN,       116,       114
PIN,       178,       125
PIN,     19165,     19900
PIN,     19238,     19260
PIN,       104,       123
PIN,     18989,       209
PIN,       184,     18994
PIN,       189,     18998
PIN,     19168,     19004
PIN,       145,     19203
PIN,     18920,     18999
PIN,        98,     18883
PIN,     18886,     18888
PIN,       128,     18889
PIN,       152,     19167
PIN,        85,        83
PIN,       175,       420
** ... 7 like lines cut
**HWNAME COMP         14 RIGID
**HWCOLOR COMP         14     3
*MPC
BEAM,        94,     18877
BEAM,        95,     18877
BEAM,        96,     18877
BEAM,     18998,         6
BEAM,     18997,         6
BEAM,     18999,         6
BEAM,     18995,     19002
BEAM,     18996,     19002
BEAM,     18994,     19002
BEAM,       125,       127
BEAM,       126,       127
BEAM,       185,       127
**HWNAME COMP         15 PINS
**HWCOLOR COMP         15     4
*MPC
PIN,       181,     18995
PIN,     18874,     19002
PIN,         6,     19001
PIN,     18921,     18996
PIN,       144,        47
PIN,       129,        17
PIN,       177,       185
PIN,       192,     18997
PIN,     18941,     18970
PIN,     18940,     18971
**HMASSEM       1      11 ASM0001.ASM
**HMASSEM_ASSEM_ID             2
**HMASSEM       2      11 ASSEMBLY_1.ASM
*SOLID SECTION, ELSET=dampers, MATERIAL=steel
**HWCOLOR COMP         17    47
*SOLID SECTION, ELSET=engine_comp, MATERIAL=engine_mat
**HWCOLOR COMP         19    10
*BEAM SECTION, ELSET=ct_1500x0065, MATERIAL= SAE4130TUBE_TEST, SECTION=PIPE
19.05     ,1.651     
0.577     ,0.577     ,0.577     
**HWCOLOR COMP        439    49
*BEAM SECTION, ELSET=ct_0500x0035, MATERIAL= SAE4130TUBE_TEST, SECTION=PIPE
6.35      ,0.889     
0.577     ,0.577     ,0.577     
**HWCOLOR COMP          1    37
*BEAM SECTION, ELSET=ct_1000x0028, MATERIAL= SAE4130TUBE_TEST, SECTION=PIPE
12.7      ,0.7112    
0.577     ,0.577     ,0.577     
**HWCOLOR COMP          4    31
*BEAM SECTION, ELSET=ct_1000x0049, MATERIAL= SAE4130TUBE_TEST, SECTION=PIPE
12.7      ,1.245     
0.577     ,0.577     ,0.577     
**HWCOLOR COMP          6     6
*BEAM SECTION, ELSET=ct_1000x0065, MATERIAL= SAE4130TUBE_TEST, SECTION=PIPE
12.7      ,1.651     
0.577     ,0.577     ,0.577     
**HWCOLOR COMP          7     7
*BEAM SECTION, ELSET=ct_1000x0095, MATERIAL= SAE4130TUBE_TEST, SECTION=PIPE
12.7      ,2.413     
0.577     ,0.577     ,0.577     
**HWCOLOR COMP          8    10
*BEAM SECTION, ELSET=ct_0625x0035, MATERIAL= SAE4130TUBE_TEST, SECTION=PIPE
7.9375    ,0.889     
0.577     ,0.577     ,0.577     
**HWCOLOR COMP          9     5
*BEAM SECTION, ELSET=ct_0625x0049, MATERIAL= SAE4130TUBE_TEST, SECTION=PIPE
7.9375    ,1.2446    
0.577     ,0.577     ,0.577     
**HWCOLOR COMP         10     6
*BEAM SECTION, ELSET=ct_1000sq0045, MATERIAL= SAE4130TUBE_TEST, SECTION=BOX
25.4      ,25.4      ,1.143     ,1.143     ,1.143     ,1.143     
**HWCOLOR COMP         12     7
*BEAM SECTION, ELSET=ct_1000sq0049, MATERIAL= SAE4130TUBE_TEST, SECTION=BOX
25.4      ,25.4      ,1.245     ,1.245     ,1.245     ,1.245     
**HWCOLOR COMP         13     8
*BEAM SECTION, ELSET=ct_1000sq0065, MATERIAL= SAE4130TUBE_TEST, SECTION=BOX
25.4      ,25.4      ,1.651     ,1.651     ,1.651     ,1.651     
**HWCOLOR COMP         28    17
*BEAM SECTION, ELSET=ct_0625x0028, MATERIAL= SAE4130TUBE_TEST, SECTION=PIPE
7.9375    ,0.7112    
**HWCOLOR COMP        436    20
*BEAM SECTION, ELSET=ct_1250x0049, MATERIAL= SAE4130TUBE_TEST, SECTION=PIPE
15.875    ,1.2446    
**HWCOLOR COMP        437    21
*BEAM SECTION, ELSET=testrig, MATERIAL= steel, SECTION=CIRC
100.0     ,
0.577     ,0.577     ,0.577     
**HWCOLOR COMP         18     6
*BEAM SECTION, ELSET=rear_uca, MATERIAL= SAE4130TUBE_TEST, SECTION=PIPE
7.938     ,1.245     
0.577     ,0.577     ,0.577     
**HWCOLOR COMP        438    21
*BEAM SECTION, ELSET=frt_uca, MATERIAL= SAE4130TUBE_TEST, SECTION=PIPE
7.9375    ,1.2446    
0.577     ,0.577     ,0.577     
**HWCOLOR COMP         20    21
*BEAM SECTION, ELSET=frt_lca, MATERIAL= SAE4130TUBE_TEST, SECTION=PIPE
7.9375    ,1.2446    
0.577     ,0.577     ,0.577     
**HWCOLOR COMP         23    21
*BEAM SECTION, ELSET=rear_lca, MATERIAL= SAE4130TUBE_TEST, SECTION=PIPE
7.9375    ,1.245     
0.577     ,0.577     ,0.577     
**HWCOLOR COMP         24    21
*BEAM SECTION, ELSET=steeringlink, MATERIAL= SAE1020, SECTION=PIPE
6.35      ,1.245     
0.5774    ,0.5774    ,0.5774    
**HWCOLOR COMP         25     7
*NSET, NSET=monitor
        98,       128
*MATERIAL, NAME=steel
*DENSITY
7.8500E-09,0.0       
*ELASTIC, TYPE = ISOTROPIC
206000.0  ,0.3       ,0.0       
*MATERIAL, NAME=engine_mat
*DENSITY
2.7130E-09,0.0       
*ELASTIC, TYPE = ISOTROPIC
65000.0   ,0.33      ,0.0       
*MATERIAL, NAME=SAE1020
*DENSITY
7.8000E-09,0.0       
*ELASTIC, TYPE = ISOTROPIC
207000.0  ,0.29      ,0.0       
*PLASTIC
207.21    ,0.0       ,0.0       
213.82    ,0.006     ,0.0       
226.91    ,0.0134    ,0.0       
242.2     ,0.0208    ,0.0       
257.7     ,0.0281    ,0.0       
299.73    ,0.0425    ,0.0       
328.77    ,0.0568    ,0.0       
360.65    ,0.0708    ,0.0       
378.07    ,0.0847    ,0.0       
410.94    ,0.1119    ,0.0       
429.71    ,0.1385    ,0.0       
444.95    ,0.1644    ,0.0       
464.08    ,0.1976    ,0.0       
**
*MATERIAL, NAME=SAE4130TUBE_TEST
*DENSITY
7.8000E-09,0.0       
*ELASTIC, TYPE = ISOTROPIC
207000.0  ,0.29      ,0.0       
*PLASTIC
763.8     ,0.0       ,0.0       
772.06    ,0.008     ,0.0       
781.71    ,0.019     ,0.0       
797.53    ,0.0294    ,0.0       
827.71    ,0.0396    ,0.0       
869.38    ,0.0497    ,0.0       
889.44    ,0.0598    ,0.0       
941.59    ,0.0797    ,0.0       
971.9     ,0.0992    ,0.0       
979.02    ,0.1185    ,0.0       
**HMNAME LOADSTEP          3 step3_combined
*STEP
Step 3 Combined Loading
*STATIC
*MONITOR, DOF =     4, NODE =          6
**HWNAME LOADCOL          3 spcs_combined
**HWCOLOR LOADCOL          3    21
*BOUNDARY, OP=NEW
         1,1,6,0.0
     18873,1,6,0.0
*CLOAD, OP=NEW
         6,1,-500.0         
         6,2,-500.0         
         6,5,-40000.0       
*NODE FILE, FREQUENCY = 1
U, 
RF, 
*EL FILE, FREQUENCY = 1
S, 
SP, 
SINV, 
E, 
ENER, 
*NODE PRINT, FREQUENCY = 1
U, 
RF, 
*EL PRINT
ENER, 
*END STEP
*****
